Version 4
SHEET 1 2264 996
WIRE 1696 -640 1120 -640
WIRE 2000 -640 1696 -640
WIRE 1120 -592 1120 -640
WIRE 240 -576 64 -576
WIRE 1696 -560 1696 -640
WIRE -96 -512 -96 -560
WIRE 1120 -464 1120 -512
WIRE 1168 -464 1120 -464
WIRE 1280 -464 1232 -464
WIRE 160 -448 160 -480
WIRE 64 -432 64 -576
WIRE 128 -432 64 -432
WIRE 240 -416 240 -576
WIRE 240 -416 192 -416
WIRE 288 -416 240 -416
WIRE 544 -416 416 -416
WIRE -96 -400 -96 -432
WIRE 32 -400 -96 -400
WIRE 128 -400 32 -400
WIRE 1120 -400 1120 -464
WIRE 1696 -400 1696 -496
WIRE -96 -368 -96 -400
WIRE 416 -368 416 -416
WIRE 1280 -368 1280 -464
WIRE 1280 -368 1168 -368
WIRE 1344 -368 1280 -368
WIRE 1456 -368 1424 -368
WIRE 1488 -368 1456 -368
WIRE 1648 -368 1568 -368
WIRE 32 -352 32 -400
WIRE 160 -352 160 -384
WIRE 544 -336 544 -416
WIRE 848 -304 800 -304
WIRE 976 -304 928 -304
WIRE 1120 -288 1120 -320
WIRE 1168 -288 1120 -288
WIRE 1280 -288 1280 -368
WIRE 1280 -288 1232 -288
WIRE 1696 -272 1696 -320
WIRE -96 -240 -96 -288
WIRE 32 -240 32 -288
WIRE 1120 -240 1120 -288
WIRE 544 -192 544 -272
WIRE 896 -160 896 -192
WIRE 1856 -160 1856 -192
WIRE 672 -144 592 -144
WIRE 800 -144 800 -304
WIRE 800 -144 752 -144
WIRE 864 -144 800 -144
WIRE 1456 -144 1456 -368
WIRE 1824 -144 1456 -144
WIRE 976 -128 976 -304
WIRE 976 -128 928 -128
WIRE 1120 -128 1120 -160
WIRE 1120 -128 976 -128
WIRE 1696 -128 1696 -208
WIRE 1696 -128 1120 -128
WIRE 2000 -128 2000 -640
WIRE 2000 -128 1888 -128
WIRE 2096 -128 2000 -128
WIRE 864 -112 800 -112
WIRE 1824 -112 1760 -112
WIRE 896 -64 896 -96
WIRE 1856 -64 1856 -96
WIRE 544 0 544 -112
WIRE 800 0 800 -112
WIRE 1760 0 1760 -112
WIRE 0 64 0 0
WIRE 0 192 0 144
WIRE 1664 256 1088 256
WIRE 1968 256 1664 256
WIRE 1088 304 1088 256
WIRE 1664 336 1664 256
WIRE 1088 432 1088 384
WIRE 1136 432 1088 432
WIRE 1248 432 1200 432
WIRE 512 480 384 480
WIRE 1088 496 1088 432
WIRE 1664 496 1664 400
WIRE 384 528 384 480
WIRE 1248 528 1248 432
WIRE 1248 528 1136 528
WIRE 1312 528 1248 528
WIRE 1424 528 1392 528
WIRE 1456 528 1424 528
WIRE 1616 528 1536 528
WIRE 512 560 512 480
WIRE 816 592 768 592
WIRE 944 592 896 592
WIRE 1088 608 1088 576
WIRE 1136 608 1088 608
WIRE 1248 608 1248 528
WIRE 1248 608 1200 608
WIRE 1664 624 1664 576
WIRE 1088 656 1088 608
WIRE 512 704 512 624
WIRE 864 736 864 704
WIRE 1824 736 1824 704
WIRE 640 752 560 752
WIRE 768 752 768 592
WIRE 768 752 720 752
WIRE 832 752 768 752
WIRE 1424 752 1424 528
WIRE 1792 752 1424 752
WIRE 944 768 944 592
WIRE 944 768 896 768
WIRE 1088 768 1088 736
WIRE 1088 768 944 768
WIRE 1664 768 1664 688
WIRE 1664 768 1088 768
WIRE 1968 768 1968 256
WIRE 1968 768 1856 768
WIRE 2064 768 1968 768
WIRE 832 784 768 784
WIRE 1792 784 1728 784
WIRE 864 832 864 800
WIRE 1824 832 1824 800
WIRE 512 896 512 784
WIRE 768 896 768 784
WIRE 1728 896 1728 784
FLAG 0 192 0
FLAG 0 0 Vcc
IOPIN 0 0 Out
FLAG 160 -352 0
FLAG 160 -480 Vcc
IOPIN 160 -480 In
FLAG -96 -240 0
FLAG -96 -560 Vcc
IOPIN -96 -560 In
FLAG 32 -240 0
FLAG 896 -64 0
FLAG 896 -192 Vcc
IOPIN 896 -192 In
FLAG 1856 -64 0
FLAG 1856 -192 Vcc
IOPIN 1856 -192 In
FLAG 2096 -128 Out
IOPIN 2096 -128 Out
FLAG 416 -288 0
FLAG 288 -416 Mid
IOPIN 288 -416 Out
FLAG 544 0 Mid
IOPIN 544 0 In
FLAG 800 0 Mid
IOPIN 800 0 In
FLAG 1760 0 Mid
IOPIN 1760 0 In
FLAG 864 832 0
FLAG 864 704 Vcc
IOPIN 864 704 In
FLAG 1824 832 0
FLAG 1824 704 Vcc
IOPIN 1824 704 In
FLAG 2064 768 Out2
IOPIN 2064 768 Out
FLAG 384 608 0
FLAG 512 896 Mid
IOPIN 512 896 In
FLAG 768 896 Mid
IOPIN 768 896 In
FLAG 1728 896 Mid
IOPIN 1728 896 In
SYMBOL voltage 0 48 R0
WINDOW 123 0 0 Left 0
WINDOW 39 0 0 Left 0
SYMATTR InstName V1
SYMATTR Value 10
SYMBOL AutoGenerated\\TL072 160 -416 R0
SYMATTR InstName U1
SYMBOL res -112 -528 R0
SYMATTR InstName R1
SYMATTR Value 10k
SYMBOL res -112 -384 R0
SYMATTR InstName R2
SYMATTR Value 10k
SYMBOL cap 16 -352 R0
SYMATTR InstName C1
SYMATTR Value 2.2µ
SYMBOL cap 528 -336 R0
SYMATTR InstName C2
SYMATTR Value 2.2µ
SYMBOL res 944 -320 R90
WINDOW 0 0 56 VBottom 2
WINDOW 3 32 56 VTop 2
SYMATTR InstName R5
SYMATTR Value 20k
SYMBOL res 768 -160 R90
WINDOW 0 0 56 VBottom 2
WINDOW 3 32 56 VTop 2
SYMATTR InstName R6
SYMATTR Value 10k
SYMBOL pot 528 -208 R0
WINDOW 3 -252 76 Left 2
SYMATTR Value Rtot=50K wiper=0.85
SYMATTR InstName U4
SYMBOL pot 1104 -304 M180
WINDOW 3 -248 72 Left 2
SYMATTR Value Rtot=100K wiper=0.5
SYMATTR InstName U5
SYMBOL res 1136 -144 R180
WINDOW 0 36 76 Left 2
WINDOW 3 36 40 Left 2
SYMATTR InstName R3
SYMATTR Value 10k
SYMBOL res 1104 -608 R0
SYMATTR InstName R4
SYMATTR Value 10k
SYMBOL cap 1232 -480 R90
WINDOW 0 0 32 VBottom 2
WINDOW 3 32 32 VTop 2
SYMATTR InstName C3
SYMATTR Value 0.033µ
SYMBOL cap 1232 -304 R90
WINDOW 0 0 32 VBottom 2
WINDOW 3 32 32 VTop 2
SYMATTR InstName C4
SYMATTR Value 0.033µ
SYMBOL res 1440 -384 R90
WINDOW 0 0 56 VBottom 2
WINDOW 3 32 56 VTop 2
SYMATTR InstName R7
SYMATTR Value 10k
SYMBOL pot 1712 -304 R180
WINDOW 3 -241 29 Left 2
SYMATTR Value Rtot=100K wiper=0.5
SYMATTR InstName U6
SYMBOL res 1472 -384 M90
WINDOW 0 0 56 VBottom 2
WINDOW 3 32 56 VTop 2
SYMATTR InstName R10
SYMATTR Value 3.3k
SYMBOL cap 1680 -272 R0
SYMATTR InstName C7
SYMATTR Value 3300p
SYMBOL cap 1680 -560 R0
SYMATTR InstName C8
SYMATTR Value 3300p
SYMBOL voltage 416 -384 R0
WINDOW 123 24 44 Left 2
WINDOW 39 0 0 Left 0
SYMATTR Value2 AC 1
SYMATTR InstName V2
SYMATTR Value ""
SYMBOL AutoGenerated\\TL072 896 -128 R0
SYMATTR InstName U2
SYMBOL AutoGenerated\\TL072 1856 -128 R0
SYMATTR InstName U3
SYMBOL cap 496 560 R0
SYMATTR InstName C5
SYMATTR Value 2.2µ
SYMBOL res 912 576 R90
WINDOW 0 0 56 VBottom 2
WINDOW 3 32 56 VTop 2
SYMATTR InstName R8
SYMATTR Value 20k
SYMBOL res 736 736 R90
WINDOW 0 0 56 VBottom 2
WINDOW 3 32 56 VTop 2
SYMATTR InstName R9
SYMATTR Value 10k
SYMBOL pot 496 688 R0
WINDOW 3 -252 76 Left 2
SYMATTR Value Rtot=50K wiper=0.85
SYMATTR InstName U7
SYMBOL pot 1072 592 M180
WINDOW 3 -248 72 Left 2
SYMATTR Value Rtot=100K wiper=0.9
SYMATTR InstName U8
SYMBOL res 1104 752 R180
WINDOW 0 36 76 Left 2
WINDOW 3 36 40 Left 2
SYMATTR InstName R11
SYMATTR Value 10k
SYMBOL res 1072 288 R0
SYMATTR InstName R12
SYMATTR Value 10k
SYMBOL cap 1200 416 R90
WINDOW 0 0 32 VBottom 2
WINDOW 3 32 32 VTop 2
SYMATTR InstName C6
SYMATTR Value 0.068µ
SYMBOL cap 1200 592 R90
WINDOW 0 0 32 VBottom 2
WINDOW 3 32 32 VTop 2
SYMATTR InstName C9
SYMATTR Value 0.068µ
SYMBOL res 1408 512 R90
WINDOW 0 0 56 VBottom 2
WINDOW 3 32 56 VTop 2
SYMATTR InstName R13
SYMATTR Value 10k
SYMBOL pot 1680 592 R180
WINDOW 3 -241 29 Left 2
SYMATTR Value Rtot=100K wiper=0.9
SYMATTR InstName U9
SYMBOL res 1440 512 M90
WINDOW 0 0 56 VBottom 2
WINDOW 3 32 56 VTop 2
SYMATTR InstName R14
SYMATTR Value 3.3k
SYMBOL cap 1648 624 R0
SYMATTR InstName C10
SYMATTR Value 6800p
SYMBOL cap 1648 336 R0
SYMATTR InstName C11
SYMATTR Value 6800p
SYMBOL voltage 384 512 R0
WINDOW 123 24 44 Left 2
WINDOW 39 0 0 Left 0
SYMATTR Value2 AC 1
SYMATTR InstName V3
SYMATTR Value ""
SYMBOL AutoGenerated\\TL072 864 768 R0
SYMATTR InstName U10
SYMBOL AutoGenerated\\TL072 1824 768 R0
SYMATTR InstName U11
TEXT -160 256 Left 2 !.include pot.sub
TEXT -152 304 Left 2 !.ac dec 100 1 30k
